Version 4
SHEET 1 880 680
WIRE 48 16 -80 16
WIRE 272 16 112 16
WIRE -384 48 -384 0
WIRE 320 112 320 64
WIRE 320 112 240 112
WIRE -176 128 -192 128
WIRE -80 128 -80 16
WIRE -80 128 -96 128
WIRE -64 128 -80 128
WIRE 80 128 16 128
WIRE 176 128 80 128
WIRE -192 144 -192 128
WIRE 80 144 80 128
WIRE 320 144 240 144
WIRE -384 160 -384 128
WIRE -256 160 -384 160
WIRE 176 160 144 160
WIRE -384 176 -384 160
WIRE -256 176 -256 160
WIRE 272 176 272 16
WIRE 272 176 240 176
WIRE 432 176 272 176
WIRE 80 224 80 208
WIRE -192 240 -192 224
WIRE 144 288 144 160
WIRE 272 288 272 176
WIRE 272 288 144 288
WIRE 320 288 320 144
WIRE -384 304 -384 256
FLAG -256 176 0
FLAG -384 0 Vdd
IOPIN -384 0 In
FLAG -384 304 Vss
IOPIN -384 304 In
FLAG -192 240 0
FLAG 320 64 Vdd
IOPIN 320 64 In
FLAG 320 288 Vss
IOPIN 320 288 In
FLAG 432 176 out
IOPIN 432 176 Out
FLAG 80 224 0
SYMBOL AutoGenerated\\TL081 208 144 R0
SYMATTR InstName U1
SYMBOL res 32 112 R90
WINDOW 0 0 56 VBottom 2
WINDOW 3 32 56 VTop 2
SYMATTR InstName R1
SYMATTR Value 10k
SYMATTR SpiceLine tol=5 pwr=0.25
SYMBOL res -80 112 R90
WINDOW 0 0 56 VBottom 2
WINDOW 3 -25 101 VTop 2
SYMATTR InstName R2
SYMATTR Value 10k
SYMATTR SpiceLine tol=5 pwr=0.25
SYMBOL cap 64 144 R0
WINDOW 3 -96 48 Left 2
SYMATTR Value 130.649n
SYMATTR InstName C1
SYMATTR SpiceLine V=50 Rser=0.1
SYMBOL cap 112 0 R90
WINDOW 0 0 32 VBottom 2
WINDOW 3 32 32 VTop 2
SYMATTR InstName C2
SYMATTR Value 263.45n
SYMATTR SpiceLine V=50 Rser=0.1
SYMBOL voltage -384 32 R0
WINDOW 123 0 0 Left 0
WINDOW 39 24 44 Left 2
SYMATTR SpiceLine Rser=1k
SYMATTR InstName V1
SYMATTR Value 16
SYMBOL voltage -384 160 R0
WINDOW 123 0 0 Left 0
WINDOW 39 24 44 Left 2
SYMATTR SpiceLine Rser=1k
SYMATTR InstName V2
SYMATTR Value 16
SYMBOL voltage -192 128 R0
WINDOW 123 24 124 Left 2
WINDOW 39 0 0 Left 0
SYMATTR Value2 AC 10n
SYMATTR InstName V3
SYMATTR Value SINE(0 10n 5k)
TEXT -456 408 Left 2 !.ac oct 100 1 10meg
