Version 4
SHEET 1 880 680
WIRE -688 -96 -688 -144
WIRE -688 16 -688 -16
WIRE -560 16 -688 16
WIRE 96 16 -32 16
WIRE 320 16 160 16
WIRE -688 32 -688 16
WIRE -560 32 -560 16
WIRE -176 96 -176 32
WIRE -176 96 -224 96
WIRE -288 112 -496 112
WIRE 368 112 368 64
WIRE 368 112 288 112
WIRE -176 128 -224 128
WIRE -128 128 -144 128
WIRE -32 128 -32 16
WIRE -32 128 -48 128
WIRE -16 128 -32 128
WIRE 128 128 64 128
WIRE 224 128 128 128
WIRE -288 144 -368 144
WIRE 128 144 128 128
WIRE 368 144 288 144
WIRE -688 160 -688 112
WIRE -208 160 -224 160
WIRE -144 160 -144 128
WIRE -144 160 -208 160
WIRE 224 160 192 160
WIRE 320 176 320 16
WIRE 320 176 288 176
WIRE 480 176 320 176
WIRE -496 208 -496 192
WIRE -176 224 -176 128
WIRE 128 224 128 208
WIRE -368 256 -368 144
WIRE -208 256 -208 160
WIRE -208 256 -368 256
WIRE 192 288 192 160
WIRE 320 288 320 176
WIRE 320 288 192 288
WIRE 368 288 368 144
FLAG -560 32 0
FLAG -688 -144 Vdd
IOPIN -688 -144 In
FLAG -688 160 Vss
IOPIN -688 160 In
FLAG -496 208 0
FLAG 368 64 Vdd
IOPIN 368 64 In
FLAG 368 288 Vss
IOPIN 368 288 In
FLAG 480 176 out
IOPIN 480 176 Out
FLAG 128 224 0
FLAG -176 32 Vdd
IOPIN -176 32 In
FLAG -176 224 Vss
IOPIN -176 224 In
SYMBOL AutoGenerated\\TL081 256 144 R0
SYMATTR InstName U1
SYMBOL res 80 112 R90
WINDOW 0 0 56 VBottom 2
WINDOW 3 32 56 VTop 2
SYMATTR InstName R1
SYMATTR Value 10k
SYMATTR SpiceLine tol=5 pwr=0.25
SYMBOL res -32 112 R90
WINDOW 0 0 56 VBottom 2
WINDOW 3 32 56 VTop 2
SYMATTR InstName R2
SYMATTR Value 10k
SYMATTR SpiceLine tol=5 pwr=0.25
SYMBOL cap 112 144 R0
SYMATTR InstName C1
SYMATTR Value 110.619n
SYMATTR SpiceLine V=50 Rser=0.1
SYMBOL cap 160 0 R90
WINDOW 0 0 32 VBottom 2
WINDOW 3 32 32 VTop 2
SYMATTR InstName C2
SYMATTR Value 442.47n
SYMATTR SpiceLine V=50 Rser=0.1
SYMBOL voltage -688 -112 R0
WINDOW 123 0 0 Left 0
WINDOW 39 24 44 Left 2
SYMATTR SpiceLine Rser=1k
SYMATTR InstName V1
SYMATTR Value 16
SYMBOL voltage -688 16 R0
WINDOW 123 0 0 Left 0
WINDOW 39 24 44 Left 2
SYMATTR SpiceLine Rser=1k
SYMATTR InstName V2
SYMATTR Value 16
SYMBOL voltage -496 96 R0
WINDOW 123 24 124 Left 2
WINDOW 39 0 0 Left 0
SYMATTR Value2 AC 10n
SYMATTR InstName V3
SYMATTR Value SINE(0 10n 5k)
SYMBOL AutoGenerated\\TL081 -256 128 R0
SYMATTR InstName U2
TEXT -592 320 Left 2 !.ac oct 100 1 10meg
