Version 4
SHEET 1 1056 680
WIRE 656 -16 464 -16
WIRE 784 -16 720 -16
WIRE -192 32 -192 -16
WIRE 352 96 352 32
WIRE 352 96 304 96
WIRE 96 112 32 112
WIRE 192 112 176 112
WIRE 240 112 192 112
WIRE 848 112 848 64
WIRE 848 112 752 112
WIRE 32 128 32 112
WIRE 320 128 304 128
WIRE 624 128 608 128
WIRE 688 128 624 128
WIRE -192 144 -192 112
WIRE -64 144 -192 144
WIRE 240 144 224 144
WIRE 848 144 752 144
WIRE -192 160 -192 144
WIRE -64 160 -64 144
WIRE 192 160 192 112
WIRE 336 160 304 160
WIRE 352 160 336 160
WIRE 464 160 464 -16
WIRE 464 160 432 160
WIRE 496 160 464 160
WIRE 608 160 608 128
WIRE 608 160 576 160
WIRE 688 160 672 160
WIRE 784 176 784 -16
WIRE 784 176 752 176
WIRE 960 176 784 176
WIRE 624 208 624 128
WIRE 32 224 32 208
WIRE 224 240 224 144
WIRE 336 240 336 160
WIRE 336 240 224 240
WIRE 192 256 192 224
WIRE 672 256 672 160
WIRE 784 256 784 176
WIRE 784 256 672 256
WIRE -192 288 -192 240
WIRE 848 288 848 144
WIRE 320 320 320 128
FLAG 192 256 0
FLAG 624 272 0
FLAG 32 224 0
FLAG -64 160 0
FLAG -192 -16 Vdd
IOPIN -192 -16 In
FLAG -192 288 Vss
IOPIN -192 288 In
FLAG 848 64 Vdd
IOPIN 848 64 In
FLAG 352 32 Vdd
IOPIN 352 32 In
FLAG 320 320 Vss
IOPIN 320 320 In
FLAG 848 288 Vss
IOPIN 848 288 In
FLAG 960 176 out
IOPIN 960 176 Out
SYMBOL res 192 96 R90
WINDOW 0 0 56 VBottom 2
WINDOW 3 32 56 VTop 2
SYMATTR InstName R1
SYMATTR Value 72k
SYMATTR SpiceLine tol=5 pwr=0.25
SYMBOL AutoGenerated\\TL081 272 128 R0
SYMATTR InstName U1
SYMBOL AutoGenerated\\TL081 720 144 R0
SYMATTR InstName U2
SYMBOL res 448 144 R90
WINDOW 0 0 56 VBottom 2
WINDOW 3 32 56 VTop 2
SYMATTR InstName R2
SYMATTR Value 72k
SYMATTR SpiceLine tol=5 pwr=0.25
SYMBOL res 592 144 R90
WINDOW 0 0 56 VBottom 2
WINDOW 3 32 56 VTop 2
SYMATTR InstName R3
SYMATTR Value 72k
SYMATTR SpiceLine tol=5 pwr=0.25
SYMBOL cap 176 160 R0
WINDOW 3 -58 11 Left 2
SYMATTR Value 0.01µ
SYMATTR InstName C1
SYMATTR SpiceLine V=50 Rser=0.1
SYMBOL cap 608 208 R0
SYMATTR InstName C2
SYMATTR Value 2n
SYMATTR SpiceLine V=50 Rser=0.1
SYMBOL cap 720 -32 R90
WINDOW 0 0 32 VBottom 2
WINDOW 3 32 32 VTop 2
SYMATTR InstName C3
SYMATTR Value 20n
SYMATTR SpiceLine V=50 Rser=0.1
SYMBOL voltage 32 112 R0
WINDOW 123 24 124 Left 2
WINDOW 39 0 0 Left 0
SYMATTR Value2 AC 10n
SYMATTR InstName V1
SYMATTR Value SINE(0 10n 5k)
SYMBOL voltage -192 16 R0
WINDOW 123 0 0 Left 0
WINDOW 39 24 44 Left 2
SYMATTR SpiceLine Rser=1k
SYMATTR InstName V2
SYMATTR Value 16
SYMBOL voltage -192 144 R0
WINDOW 123 0 0 Left 0
WINDOW 39 24 44 Left 2
SYMATTR SpiceLine Rser=1k
SYMATTR InstName V3
SYMATTR Value 16
TEXT -88 320 Left 2 !.ac oct 100 1 10meg
